[TITLE]
;;Project Title/Notes

[OPTIONS]
;;Option             Value
FLOW_UNITS           CMS
INFILTRATION         MODIFIED_GREEN_AMPT
FLOW_ROUTING         KINWAVE
LINK_OFFSETS         ELEVATION
MIN_SLOPE            0
ALLOW_PONDING        NO
SKIP_STEADY_STATE    NO

START_DATE           01/01/2025
START_TIME           00:00:00
REPORT_START_DATE    01/01/2025
REPORT_START_TIME    00:00:00
END_DATE             01/01/2025
END_TIME             23:55:00
SWEEP_START          01/01
SWEEP_END            12/31
DRY_DAYS             0
REPORT_STEP          00:15:00
WET_STEP             00:05:00
DRY_STEP             01:00:00
ROUTING_STEP         0:02:00 
RULE_STEP            00:00:00

INERTIAL_DAMPING     PARTIAL
NORMAL_FLOW_LIMITED  BOTH
FORCE_MAIN_EQUATION  H-W
VARIABLE_STEP        0.75
LENGTHENING_STEP     0
MIN_SURFAREA         1.167
MAX_TRIALS           8
HEAD_TOLERANCE       0.0015
SYS_FLOW_TOL         5
LAT_FLOW_TOL         5
MINIMUM_STEP         0.5
THREADS              1

[EVAPORATION]
;;Data Source    Parameters
;;-------------- ----------------
TIMESERIES       EVAP_FEBBRAIO2024
DRY_ONLY         NO

[TEMPERATURE]
;;Data Element     Values     
TIMESERIES         TEMP_FEBBRAI2024
WINDSPEED MONTHLY  0.0 0.0 0.0 0.0 0.0 0.0 0.0 0.0 0.0 0.0 0.0 0.0
SNOWMELT           34 0.5 0.6 0.0 50.0 0.0
ADC IMPERVIOUS     1.0 1.0 1.0 1.0 1.0 1.0 1.0 1.0 1.0 1.0
ADC PERVIOUS       1.0 1.0 1.0 1.0 1.0 1.0 1.0 1.0 1.0 1.0

[RAINGAGES]
;;Name           Format    Interval SCF      Source    
;;-------------- --------- ------ ------ ----------
RG1              INTENSITY 0:05     1.0      TIMESERIES 2YRS24HR150MM_IV
RG2              INTENSITY 0:05     1.0      TIMESERIES 2YRS24HR300MM_IV
RG4              INTENSITY 0:05     1.0      TIMESERIES 2YRS24HR150MM_TR
RG5              CUMULATIVE 0:05     1.0      TIMESERIES                 

[SUBCATCHMENTS]
;;Name           Rain Gage        Outlet           Area     %Imperv  Width    %Slope   CurbLen  SnowPack        
;;-------------- ---------------- ---------------- -------- -------- -------- -------- -------- ----------------
;PIAZZALE +20M SLM
AMDC.1           RG2              JOIN100          0.1833   100      136.2    3.45     0                        
;SCARPATA LATO MASSA
AMDC.2           RG2              JOIN93           0.2417   15       70.4     22.86    0                        
;QUOTA +43M SLM
AMDC.3           RG2              JOIN91           0.4556   15       90.82    0.75     0                        
;VIABILITA INTERNA
AMDC.4           RG2              JOIN94           0.117    100      12       15.5     0                        
;QUOTA +43M SLM
AMDNC.1          RG2              TANK7            0.1798   100      52.8     0.85     0                        
;PARAMENTO ESTERNO
AMDNC.10         RG2              JOIN58           0.1171   100      12       21       0                        
;PARAMENTO ESTERNO
AMDNC.11         RG2              JOIN56           0.0397   100      12       14.56    0                        
;STRADA DI CORONAMENTO
AMDNC.12         RG2              JOIN84           0.19     100      6        19.43    0                        
;STRADA +43M SLM
AMDNC.13         RG2              JOIN78           0.02556  100      6.97     0.79     0                        
;QUOTA +43M SLM
AMDNC.2          RG2              TANK8            0.2082   100      63.3     0.75     0                        
AMDNC.3          RG2              TANK3            0.4206   100      56.3     0.59     0                        
;QUOTA +43M SLM
AMDNC.4          RG2              TANK2            0.4799   100      152.84   0.60     0                        
;QUOTA +43M SLM
AMDNC.5          RG2              TANK1            0.6536   100      155.6    0.52     0                        
;STRADA +43M SLM
AMDNC.6          RG2              JOIN45           0.1585   100      16.99    0.52     0                        
;STRADA +43M SLM
AMDNC.7          RG2              JOIN49           0.02     100      6.97     0.79     0                        
;SCARPATA
AMDNC.8          RG2              JOIN55           0.29     100      31       20.52    0                        
;SCARPATA
AMDNC.9          RG2              JOIN52           0.1490   100      28.38    20.52    0                        
;VASCA AMDNC
AMDNC.OUT        RG2              join110          0.0644   0        77.28    3.6      0                        

[SUBAREAS]
;;Subcatchment   N-Imperv   N-Perv     S-Imperv   S-Perv     PctZero    RouteTo    PctRouted 
;;-------------- ---------- ---------- ---------- ---------- ---------- ---------- ----------
AMDC.1           0.015      0.4        0          0          0          OUTLET    
AMDC.2           0.015      0.4        1          1          15         OUTLET    
AMDC.3           0.015      0.4        1          1          15         OUTLET    
AMDC.4           0.033      0.4        0.1        0.1        0          OUTLET    
AMDNC.1          0.01       0.1        0.05       0.05       25         OUTLET    
AMDNC.10         0.014      0.1        0.09       0.05       50         OUTLET    
AMDNC.11         0.02       0.1        0.09       0.05       50         OUTLET    
AMDNC.12         0.01       0.1        0.05       0.05       0          OUTLET    
AMDNC.13         0.01       0.1        0.05       0.05       25         OUTLET    
AMDNC.2          0.01       0.1        0.05       0.05       25         OUTLET    
AMDNC.3          0.015      0.1        15         0.05       0          IMPERVIOUS 100       
AMDNC.4          0.015      0.1        15         0.04       0          IMPERVIOUS 100       
AMDNC.5          0.015      0.1        15         0.04       0          IMPERVIOUS 100       
AMDNC.6          0.015      0.1        15         0.05       0          IMPERVIOUS 100       
AMDNC.7          0.015      0.1        15         0.05       0          IMPERVIOUS 100       
AMDNC.8          0.015      0.1        0.09       0.05       50         OUTLET    
AMDNC.9          0.015      0.4        0.09       0.05       50         OUTLET    
AMDNC.OUT        0.1        0.4        0          20         0          PERVIOUS   100       

[INFILTRATION]
;;Subcatchment   Param1     Param2     Param3     Param4     Param5    
;;-------------- ---------- ---------- ---------- ---------- ----------
AMDC.1           3.5        0.5        0.25                            
AMDC.2           3          2.5        0.25                            
AMDC.3           3          2.5        0.25                            
AMDC.4           3.5        0.5        0.25                            
AMDNC.1          3.5        0.5        0.25                            
AMDNC.10         3.5        0.5        0.25                            
AMDNC.11         3.5        0.5        0.25                            
AMDNC.12         3.5        0.5        0.25                            
AMDNC.13         3.5        0.5        0.25                            
AMDNC.2          3.5        0.5        0.25                            
AMDNC.3          3.5        0.5        0.25                            
AMDNC.4          3.5        0.5        0.25                            
AMDNC.5          3.5        0.5        0.25                            
AMDNC.6          3.5        0.5        0.25                            
AMDNC.7          3.5        0.5        0.25                            
AMDNC.8          3.5        0.5        0.25                            
AMDNC.9          3.5        0.5        0.25                            
AMDNC.OUT        2          4          1                               

[AQUIFERS]
;;Name           Por    WP     FC     Ksat   Kslope Tslope ETu    ETs    Seep   Ebot   Egw    Umc    ETupat 
;;-------------- ------ ------ ------ ------ ------ ------ ------ ------ ------ ------ ------ ------ ------
AQ1              0.89   0      0.01   833.9  8.47   23     0.35   14.0   033    0.0    4      0.52         

[GROUNDWATER]
;;Subcatchment   Aquifer          Node             Esurf  A1     B1     A2     B2     A3     Dsw    Egwt   Ebot   Wgr    Umc   
;;-------------- ---------------- ---------------- ------ ------ ------ ------ ------ ------ ------ ------ ------ ------ ------
AMDNC.OUT        AQ1              JOIN35           6      0.011  0.33   0      0      0      4.5    0.5    -10    *      0.1   

[JUNCTIONS]
;;Name           Elevation  MaxDepth   InitDepth  SurDepth   Aponded   
;;-------------- ---------- ---------- ---------- ---------- ----------
JOIN10           41         1          0          0          0         
JOIN11           33         1          0          0          0         
JOIN13           41         1          0          0          0         
JOIN15           42.7       1          0          0          0         
JOIN16           42.7       1          0          0          0         
JOIN17           42.5       1          0          0          0         
JOIN18           28         1          0          1.5        0         
JOIN19           27         1          0          0          0         
JOIN21           26         2          0          0          0         
JOIN24           8          2          0          0          0         
JOIN4            30         1          0          3          0         
JOIN45           41.5       1          0          0          0         
JOIN46           42.5       1          0          0          0         
JOIN47           43         1          0          0          0         
JOIN48           42         1          0          0          0         
JOIN49           43         1          0          0          0         
JOIN5            33         1          0          3          0         
JOIN50           41         1          0          0          0         
JOIN51           35         1          0          0          0         
JOIN52           33         0          0          0          0         
JOIN53           32.5       0          0          0          0         
JOIN54           32         0          0          0          0         
JOIN55           31.5       0          0          0          0         
JOIN56           28         0          0          0          0         
JOIN57           27.5       0          0          0          0         
JOIN58           27         0          0          0          0         
JOIN59           26.5       0          0          0          0         
JOIN6            37         1          0          0          0         
JOIN60           19.5       0          0          0          0         
JOIN61           15         3          0          0          0         
JOIN7            41         1          0          0          0         
JOIN72           42.5       1          0          0          0         
JOIN73           41         1          0          0          0         
JOIN75           42.7       1          0          0          0         
JOIN76           35         1          0          0          0         
JOIN77           35         1          0          0          0         
JOIN78           43         1          0          0          0         
JOIN80           31         0          0          0          0         
JOIN81           28         1          0          0          0         
JOIN82           27         1          0          0          0         
JOIN84           67.5       1          0          0          0         
JOIN85           33.5       1.5        0          0          0         
JOIN86           36         0          0          0          0         
POZZ31           32         1          0          0          0         
JOIN83           19         0          0          0          0         
JOIN88           17         0          0          0          0         
JOIN92           41         0          0          0          0         
JOIN93           31.5       0          0          0          0         
JOIN94           26         0          0          0          0         
JOIN95           22.5       0          0          0          0         
JOIN96           20         0          0          0          0         
JOIN100          19.8       0          0          0          0         
JOIN101          18.30      0          0          0          0         
JOIN102          14.5       1          0          0          0         
JOIN103          15         2          0          0          0         
JOIN104          15         1          0          0          0         
JOIN107          16         0          0          0          0         
JOIN108          6          0          0          0          0         
JOIN110          0          0          0          0          0         
SCARICO          10         0          0          0          0         
PUO1             10         0          0          0          0         

[OUTFALLS]
;;Name           Elevation  Type       Stage Data       Gated    Route To        
;;-------------- ---------- ---------- ---------------- -------- ----------------
JOIN35           6          FREE                        NO                       
JOIN97           41         FREE                        NO       AMDC.2          
JOIN109          0          FREE                        NO       AMDNC.OUT       
JOIN34           6.8        FREE                        NO                       

[DIVIDERS]
;;Name           Elevation  Diverted Link    Type       Parameters
;;-------------- ---------- ---------------- ---------- ----------
JOIN43           42.5       PIPE69           OVERFLOW   1          0          0          0         
JOIN44           42         PIPE28           OVERFLOW   1          0          0          0         
JOIN91           42.5       PIPE85           OVERFLOW   0          0          0          0         

[STORAGE]
;;Name           Elev.    MaxDepth   InitDepth  Shape      Curve Type/Params            SurDepth  Fevap    Psi      Ksat     IMD     
;;-------------- -------- ---------- ----------- ---------- ---------------------------- --------- --------          -------- --------
TANK1            43       1          0          FUNCTIONAL 0          0          6500     0         0       
TANK2            43       1          0          FUNCTIONAL 0          0          4500     0         0       
TANK3            43       1          0          FUNCTIONAL 0          0          5300     0         0       
TANK6            12       4          0          FUNCTIONAL 0          0          150      0         0       
TANK7            43       1          0          FUNCTIONAL 0          0          1400     0         0       
TANK8            43       1          0          FUNCTIONAL 0          0          2800     0         0       
JOIN22           7        2          0          FUNCTIONAL 0          0          1000     0         0       

[CONDUITS]
;;Name           From Node        To Node          Length     Roughness  InOffset   OutOffset  InitFlow   MaxFlow   
;;-------------- ---------------- ---------------- ---------- ---------- ---------- ---------- ---------- ----------
PIPE10           JOIN16           JOIN46           2          0.012      *          *          0          0         
PIPE11           JOIN10           JOIN11           15         0.012      *          *          0          0         
PIPE12           JOIN11           POZZ31           10         0.012      *          *          0          0         
PIPE14           JOIN7            JOIN6            80         0.015      *          *          0          0         
PIPE15           JOIN6            JOIN5            25         0.015      *          *          0          0         
PIPE16           JOIN5            POZZ31           25         0.015      *          *          0          0         
PIPE17           JOIN4            JOIN18           22         0.015      *          *          0          0         
PIPE18           JOIN18           JOIN19           23         0.015      *          *          0          0         
PIPE19           JOIN19           JOIN21           18         0.015      *          *          0          0         
PIPE21           JOIN21           JOIN24           20         0.022      *          *          0          0         
PIPE22           JOIN24           JOIN22           40         0.022      *          *          0          0         
PIPE28           JOIN44           JOIN45           25         0.015      *          *          0          0         
PIPE29           JOIN46           JOIN45           20         0.015      *          *          0          0         
PIPE31           JOIN49           JOIN48           40         0.015      *          *          0          0         
PIPE33           JOIN73           JOIN51           15         0.012      *          *          0          0         
PIPE34           JOIN51           POZZ31           10         0.012      *          *          0          0         
PIPE35           JOIN52           JOIN53           25         0.033      *          *          0          0         
PIPE36           JOIN53           JOIN54           25         0.033      *          *          0          0         
PIPE37           JOIN54           JOIN55           25         0.033      *          *          0          0         
PIPE38           JOIN55           JOIN80           20         0.033      *          *          0          0         
PIPE39           JOIN59           JOIN21           20         0.01       *          *          0          0         
PIPE40           JOIN56           JOIN57           20         0.033      *          *          0          0         
PIPE41           JOIN57           JOIN58           20         0.01       *          *          0          0         
PIPE42           JOIN58           JOIN59           20         0.01       *          *          0          0         
PIPE45           JOIN61           TANK6            30         0.01       *          *          0          0         
PIPE52           JOIN72           JOIN73           70         0.012      *          *          0          0         
PIPE55           JOIN75           JOIN43           50         0.012      *          *          0          0         
PIPE56           JOIN77           POZZ31           10         0.01       *          *          0          0         
PIPE57           JOIN15           JOIN44           2          0.012      *          *          0          0         
PIPE58           JOIN76           POZZ31           10         0.012      *          *          0          0         
PIPE59           JOIN13           JOIN76           15         0.012      *          *          0          0         
PIPE60           JOIN50           JOIN77           15         0.012      *          *          0          0         
PIPE61           JOIN48           JOIN7            6          0.015      *          *          0          0         
PIPE62           JOIN78           JOIN48           40         0.01       *          *          0          0         
PIPE63           JOIN43           JOIN50           10         0.012      *          *          0          0         
PIPE64           JOIN44           JOIN13           10         0.015      *          *          0          0         
PIPE65           JOIN45           JOIN10           10         0.015      *          *          0          0         
PIPE66           JOIN47           JOIN46           30         0.015      *          *          0          0         
PIPE68           JOIN17           JOIN48           2          0.015      *          *          0          0         
PIPE69           JOIN43           JOIN44           20         0.015      *          *          0          0         
PIPE70           POZZ31           JOIN4            10         0.015      *          *          0          0         
PIPE71           JOIN80           JOIN81           20         0.01       *          *          0          0         
PIPE72           JOIN81           JOIN82           20         0.01       *          *          0          0         
PIPE73           JOIN82           JOIN21           20         0.01       *          *          0          0         
PIPE74           JOIN60           JOIN83           35         0.025      *          *          0          0         
PIPE75           JOIN85           JOIN21           44         0.01       *          *          0          0         
PIPE76           JOIN84           JOIN86           1900       0.018      *          *          0          0         
PIPE80           JOIN92           JOIN93           52.6       0.03       *          *          0          0         
PIPE81           JOIN93           JOIN94           42.8       0.03       *          *          0          0         
PIPE82           JOIN94           JOIN95           37.3       0.03       *          *          0          0         
PIPE83           JOIN95           JOIN96           31         0.03       *          *          0          0         
PIPE84           JOIN91           JOIN92           20         0.01       *          *          0          0         
PIPE85           JOIN91           JOIN97           20         0.01       *          *          0          0         
PIPE89           JOIN100          JOIN60           20         0.02       *          *          0          0         
PIPE90           JOIN96           JOIN100          20         0.02       *          *          0          0         
PIPE91           JOIN83           JOIN101          4.8        0.3        *          *          0          0         
PIPE92           JOIN101          JOIN88           9          0.3        *          *          0          0         
PIPE93           JOIN103          JOIN102          20         0.01       *          *          0          0         
PIPE94           JOIN104          JOIN102          20         0.01       *          *          0          0         
PIPE95           JOIN102          TANK6            5          0.01       *          *          0          0         
PIPE98           JOIN88           JOIN107          13.7       0.3        *          *          0          0         
PIPE100          JOIN108          JOIN109          20         0.01       *          *          0          0         

[PUMPS]
;;Name           From Node        To Node          Pump Curve       Status   Sartup Shutoff 
;;-------------- ---------------- ---------------- ---------------- ------ -------- --------
PUM1             TANK6            PUO1             SCARICO          ON       0        0       

[ORIFICES]
;;Name           From Node        To Node          Type         Offset     Qcoeff     Gated    CloseTime 
;;-------------- ---------------- ---------------- ------------ ---------- ---------- -------- ----------
OR1              TANK3            JOIN15           SIDE         *          0.65       YES      0         
OR2              TANK2            JOIN16           SIDE         *          0.65       YES      0         
OR3              TANK1            JOIN17           BOTTOM       *          0.65       YES      0         
OR6              TANK7            JOIN72           SIDE         *          0.65       NO       0         
OR7              TANK8            JOIN75           SIDE         *          0.65       NO       0         
PIPE99           JOIN22           JOIN108          SIDE         0          0.65       NO       0         

[WEIRS]
;;Name           From Node        To Node          Type         CrestHt    Qcoeff     Gated    EndCon   EndCoeff   Surcharge  RoadWidth  RoadSurf   Coeff. Curve
;;-------------- ---------------- ---------------- ------------ ---------- ---------- -------- -------- ---------- ---------- ---------- ---------- ----------------
REG1             JOIN22           JOIN108          TRANSVERSE   1.8        3.33       NO       0        0          YES       

[XSECTIONS]
;;Link           Shape        Geom1            Geom2      Geom3      Geom4      Barrels    Culvert   
;;-------------- ------------ ---------------- ---------- ---------- ---------- ---------- ----------
PIPE10           CIRCULAR     0.20             0          0          0          1                    
PIPE11           CIRCULAR     0.25             0          0          0          1                    
PIPE12           CIRCULAR     0.20             0          0          0          1                    
PIPE14           CIRCULAR     0.25             0          0          0          1                    
PIPE15           CIRCULAR     0.25             0          0          0          1                    
PIPE16           CIRCULAR     0.25             0          0          0          1                    
PIPE17           CIRCULAR     0.5              0          0          0          1                    
PIPE18           CIRCULAR     0.5              0          0          0          1                    
PIPE19           CIRCULAR     0.5              0          0          0          1          4         
PIPE21           CIRCULAR     1                0          0          0          1                    
PIPE22           CIRCULAR     1                0          0          0          1                    
PIPE28           CIRCULAR     0.25             0          0          0          1                    
PIPE29           CIRCULAR     0.25             0          0          0          1                    
PIPE31           CIRCULAR     0.25             0          0          0          1                    
PIPE33           CIRCULAR     0.20             0          0          0          1                    
PIPE34           CIRCULAR     0.20             0          0          0          1                    
PIPE35           TRAPEZOIDAL  0.5              0.5        0.2        0.5        1                    
PIPE36           TRAPEZOIDAL  0.5              0.5        0.2        0.5        1                    
PIPE37           TRAPEZOIDAL  0.5              0.5        0.2        0.5        1                    
PIPE38           TRAPEZOIDAL  0.5              0.5        0.2        0.5        1                    
PIPE39           TRAPEZOIDAL  0.3              0.2        0.5        0.5        1                    
PIPE40           TRAPEZOIDAL  0.3              0.2        0.5        0.5        1                    
PIPE41           TRAPEZOIDAL  0.3              0.3        0.5        0.5        1                    
PIPE42           TRAPEZOIDAL  0.3              0.2        0.5        0.5        1                    
PIPE45           CIRCULAR     0.2              0          0          0          1                    
PIPE52           CIRCULAR     0.20             0          0          0          1                    
PIPE55           CIRCULAR     0.20             0          0          0          1                    
PIPE56           CIRCULAR     0.5              0          0          0          1                    
PIPE57           CIRCULAR     0.20             0          0          0          1                    
PIPE58           CIRCULAR     0.20             0          0          0          1                    
PIPE59           CIRCULAR     0.20             0          0          0          1                    
PIPE60           CIRCULAR     0.20             0          0          0          1                    
PIPE61           CIRCULAR     0.25             0          0          0          1                    
PIPE62           CIRCULAR     0.25             0          0          0          1                    
PIPE63           CIRCULAR     0.20             0          0          0          1                    
PIPE64           CIRCULAR     0.25             0          0          0          1                    
PIPE65           CIRCULAR     0.25             0          0          0          1                    
PIPE66           CIRCULAR     0.25             0          0          0          1                    
PIPE68           CIRCULAR     0.25             0          0          0          1                    
PIPE69           CIRCULAR     0.25             0          0          0          1                    
PIPE70           CIRCULAR     0.5              0          0          0          1                    
PIPE71           CIRCULAR     1                0          0          0          1                    
PIPE72           CIRCULAR     1                0          0          0          1                    
PIPE73           CIRCULAR     1                0          0          0          1                    
PIPE74           STREET       AMDC.1          
PIPE75           CIRCULAR     0.2              0          0          0          1                    
PIPE76           STREET       AMDNC.12        
PIPE80           STREET       VIABILITA       
PIPE81           STREET       VIABILITA       
PIPE82           STREET       VIABILITA       
PIPE83           STREET       VIABILITA       
PIPE84           CIRCULAR     0.2              0          0          0          1                    
PIPE85           CIRCULAR     1                0          0          0          1                    
PIPE89           STREET       AMDC.1          
PIPE90           STREET       AMDC.1          
PIPE91           STREET       GALLERIA        
PIPE92           STREET       GALLERIA        
PIPE93           CIRCULAR     0.2              0          0          0          1                    