[TITLE]
;;Project Title/Notes

[OPTIONS]
;;Option            	Value
FLOW_UNITS          	CFS
INFILTRATION        	HORTON
FLOW_ROUTING        	KINWAVE
LINK_OFFSETS        	ELEVATION
MIN_SLOPE           	0
ALLOW_PONDING       	YES
SKIP_STEADY_STATE   	YES

START_DATE          	05/01/2024
START_TIME          	00:00:00
REPORT_START_DATE   	05/01/2024
REPORT_START_TIME   	09:30:00
END_DATE            	05/03/2024
END_TIME            	23:55:00
SWEEP_START         	01/01
SWEEP_END           	12/31
DRY_DAYS            	0
REPORT_STEP         	00:15:00
WET_STEP            	00:15:00
DRY_STEP            	01:50:00
ROUTING_STEP        	0:01:00 
RULE_STEP           	00:00:00

INERTIAL_DAMPING    	PARTIAL
NORMAL_FLOW_LIMITED 	BOTH
FORCE_MAIN_EQUATION 	H-W
VARIABLE_STEP       	0.75
LENGTHENING_STEP    	0
MIN_SURFAREA        	1.167
MAX_TRIALS          	8
HEAD_TOLERANCE      	0.0015
SYS_FLOW_TOL        	5
LAT_FLOW_TOL        	5
MINIMUM_STEP        	0.5
THREADS             	1

[EVAPORATION]
;;Data Source   	Parameters
;;--------------	----------------
CONSTANT        	1.73
DRY_ONLY        	YES

[TEMPERATURE]
;;Data Element    	Values     
TIMESERIES        	TS_MAGGIO2024
WINDSPEED MONTHLY 	3.7	4.35	5	4.22	4.7	4.2	4	4	4.35	3.8	4.3	2.8
SNOWMELT          	34	0.5	0.6	0.0	50.0	0.0
ADC IMPERVIOUS    	1.0	1.0	1.0	1.0	1.0	1.0	1.0	1.0	1.0	1.0
ADC PERVIOUS      	1.0	1.0	1.0	1.0	1.0	1.0	1.0	1.0	1.0	1.0

[RAINGAGES]
;;Name          	Format   	Interval	SCF     	Source    
;;--------------	---------	------	------	----------
;Evento piovoso 2024
Gage4           	CUMULATIVE	0:05    	1.0     	TIMESERIES	TS_MAGGIO2024_TEMP
Gage5           	CUMULATIVE	0:05    	1.0     	TIMESERIES	TSS_FEBBR2024   

[SUBCATCHMENTS]
;;Name          	Rain Gage       	Outlet          	Area    	%Imperv 	Width   	%Slope  	CurbLen 	SnowPack        
;;--------------	----------------	----------------	--------	--------	--------	--------	--------	----------------
SC43_MS1        	Gage4           	OUT43_MS        	1.97    	100     	246     	0.04    	0       	                
SC43_MS2        	Gage4           	J1              	1       	100     	127.95  	0.02    	0       	                
SC43_LU         	Gage4           	OUT43_LU        	1.6     	100     	295     	0.02    	0       	                
SC43_MS3        	Gage4           	OUTLF_AMDC      	1.24    	20      	246     	0.1     	0       	                
SC20_PZ         	Gage4           	AMDC_SCPZ       	0.75    	100     	100     	0.03    	0       	                
SC25_PRMS       	Gage4           	J17             	0.075   	100     	33      	0.04    	0       	                
SC31_SCPMS      	Gage4           	J20             	0.12    	85      	115     	0.03    	0       	                
SC31_SCPLU      	Gage4           	J21             	0.12    	85      	98      	0.03    	0       	                
SCOUT_AMDNC     	Gage4           	J4              	0.15    	0       	78      	0.04    	0       	                
SCOUT_MS        	Gage4           	J24             	0.15    	75      	85.3    	0.5     	0       	                
SCOUT_LU        	Gage4           	J25             	0.15    	55      	170     	0.5     	0       	                

[SUBAREAS]
;;Subcatchment  	N-Imperv  	N-Perv    	S-Imperv  	S-Perv    	PctZero   	RouteTo   	PctRouted 
;;--------------	----------	----------	----------	----------	----------	----------	----------
SC43_MS1        	0.015     	0.15      	0.05      	0.05      	10        	OUTLET    
SC43_MS2        	0.015     	0.1       	0.05      	0.05      	10        	OUTLET    
SC43_LU         	0.015     	0.15      	0.05      	0.05      	10        	OUTLET    
SC43_MS3        	0.015     	0.15      	0.05      	0.05      	25        	PERVIOUS  	100       
SC20_PZ         	0.013     	0.15      	0.05      	0.05      	25        	IMPERVIOUS	100       
SC25_PRMS       	0.015     	0.15      	0.05      	0.05      	25        	IMPERVIOUS	100       
SC31_SCPMS      	0.015     	0.15      	0.05      	0.05      	25        	IMPERVIOUS	100       
SC31_SCPLU      	0.015     	0.15      	0.05      	0.05      	25        	IMPERVIOUS	100       
SCOUT_AMDNC     	0.015     	0.15      	0.05      	0.05      	25        	PERVIOUS  	100       
SCOUT_MS        	0.013     	0.15      	0.05      	0.05      	25        	OUTLET    
SCOUT_LU        	0.013     	0.15      	0.05      	0.05      	25        	OUTLET    

[INFILTRATION]
;;Subcatchment  	Param1    	Param2    	Param3    	Param4    	Param5    
;;--------------	----------	----------	----------	----------	----------
SC43_MS1        	3.0       	0.5       	4         	7         	0         
SC43_MS2        	3.0       	0.5       	4         	7         	0         
SC43_LU         	3.0       	0.5       	4         	7         	0         
SC43_MS3        	3.0       	0.5       	4         	7         	0         
SC20_PZ         	3.0       	0.5       	4         	7         	0         
SC25_PRMS       	3.0       	0.5       	4         	7         	0         
SC31_SCPMS      	3.0       	0.5       	4         	7         	0         
SC31_SCPLU      	3.0       	0.5       	4         	7         	0         
SCOUT_AMDNC     	3.0       	0.5       	4         	7         	0         
SCOUT_MS        	3.0       	0.5       	4         	7         	0         
SCOUT_LU        	3.0       	0.5       	4         	7         	0         

[LID_CONTROLS]
;;Name          	Type/Layer	Parameters
;;--------------	----------	----------
LID1            	BC
LID1            	SURFACE   	1.5       	0.0       	0.1       	1.0       	5         
LID1            	SOIL      	300       	0.5       	0.2       	0.1       	0.5       	10.0      	3.5       
LID1            	STORAGE   	200       	0.75      	0.5       	0         	NO        
LID1            	DRAIN     	0         	0.5       	6         	6         	0         	0         	          

LID_BR          	RB
LID_BR          	STORAGE   	31.50     	0.75      	0.5       	0         	NO        
LID_BR          	DRAIN     	0.6       	0.5       	6         	6         	30        	0         	          

LID_BR1         	RB
LID_BR1         	STORAGE   	35        	0.75      	0.5       	0         	NO        
LID_BR1         	DRAIN     	0.6       	0.5       	6         	6         	0         	0         	          

[LID_USAGE]
;;Subcatchment  	LID Process     	Number 	Area      	Width     	InitSat   	FromImp   	ToPerv    	RptFile                 	DrainTo         	FromPerv  
;;--------------	----------------	-------	----------	----------	----------	----------	----------	------------------------	----------------	----------
SCOUT_AMDNC     	LID1            	1      	6534.00   	3.28      	0         	100       	0         	*                       	*               	30              

[JUNCTIONS]
;;Name          	Elevation 	MaxDepth  	InitDepth 	SurDepth  	Aponded   
;;--------------	----------	----------	----------	----------	----------
OUT43_MS        	42.9      	0.01      	0         	0         	0         
OUT43_LU        	43        	0.01      	0         	0         	0         
OUTLF_AMDNC     	24.5      	0.2       	0         	0         	0         
OUTLF_AMDC      	19        	0.2       	0         	0         	0         
AMDC_SCPZ       	20        	0.1       	0         	0         	0         
J1              	42.8      	0.01      	0         	0         	0         
J5              	33        	0.01      	0         	0         	0         
J10             	25.2      	0.2       	0         	0         	0         
J15             	25.1      	0.01      	0         	0         	0         
J16             	26.5      	0.2       	0         	0         	0         
J17             	27        	0.2       	0         	0         	0         
J18             	31        	0.4       	0         	0         	0         
J19             	31.5      	0.6       	0         	0         	0         
J20             	32        	0.5       	0         	0         	0         
J21             	33        	0.5       	0         	0         	0         
J22             	32.3      	0.4       	0         	0         	0         
J4              	10        	0.2       	0         	0         	0         
J3              	15        	0.2       	0         	0         	0         
J6              	15        	0.2       	0         	0         	0         
J8              	43        	0.01      	0         	0         	0         
J9              	42.5      	0         	0         	0         	0         
J11             	42        	0         	0         	0         	0         
J12             	39        	0         	0         	0         	0         

[OUTFALLS]
;;Name          	Elevation 	Type      	Stage Data      	Gated   	Route To        
;;--------------	----------	----------	----------------	--------	----------------
J25             	8         	FREE      	                	NO      	                
J24             	8         	FREE      	                	NO      	                

[STORAGE]
;;Name          	Elev.   	MaxDepth  	InitDepth 	Shape     	Curve Type/Params           	SurDepth 	Fevap   	Psi     	Ksat    	IMD     
;;--------------	--------	----------	-----------	----------	----------------------------	---------	--------	        	--------	--------
J7              	10      	6.0       	0         	PYRAMIDAL 	65.4      	32.8      	0       	6.5      	0       

[CONDUITS]
;;Name          	From Node       	To Node         	Length    	Roughness 	InOffset  	OutOffset 	InitFlow  	MaxFlow   
;;--------------	----------------	----------------	----------	----------	----------	----------	----------	----------
C1              	J1              	J5              	197       	0.01      	*         	*         	0         	0         
C4              	OUT43_MS        	J5              	174       	0.01      	0         	0         	0         	0         
C5              	J5              	OUTLF_AMDNC     	145       	0.01      	0         	0         	0         	0         
C6              	OUT43_LU        	J5              	624       	0.01      	0         	0         	0         	0         
C8              	AMDC_SCPZ       	OUTLF_AMDC      	230       	0.01      	0         	0         	0         	0         
C12             	J19             	J18             	105       	0.016     	13        	0         	0         	0         
C13             	J20             	J19             	105       	0.016     	13        	0         	0         	0         
C14             	J18             	OUTLF_AMDNC     	33        	0.01      	0         	0         	0         	0         
C15             	J15             	OUTLF_AMDNC     	49        	0.01      	0         	0         	0         	0         
C16             	J10             	J15             	49        	0.02      	0         	0         	0         	0         
C17             	J16             	J10             	125       	0.035     	0         	0         	0         	0         
C18             	J17             	J16             	98.5      	0.035     	0         	0         	0         	0         
C19             	J21             	J22             	111.5     	0.016     	13        	0         	0         	0         
C20             	J22             	J20             	105       	0.016     	13        	0         	0         	0         
C2              	OUTLF_AMDNC     	J3              	25        	0.01      	*         	*         	0         	0         
C3              	J3              	J4              	90        	0.01      	*         	*         	0         	0         
C9              	OUTLF_AMDC      	J6              	60        	0.01      	*         	*         	0         	0         
C10             	J6              	J7              	70        	0.01      	*         	*         	0         	0         
C11             	J8              	J9              	150       	0.016     	*         	*         	0         	0         
C21             	J9              	J11             	150       	0.016     	*         	*         	0         	0         
C22             	J11             	J12             	120       	0.016     	*         	*         	0         	0         
C23             	J12             	OUTLF_AMDNC     	150       	0.01      	*         	*         	0         	0         

[XSECTIONS]
;;Link          	Shape       	Geom1           	Geom2     	Geom3     	Geom4     	Barrels   	Culvert   
;;--------------	------------	----------------	----------	----------	----------	----------	----------
C1              	CIRCULAR    	0.05            	0         	0         	0         	1         	          
C4              	CIRCULAR    	0.05            	0         	0         	0         	1         	          
C5              	CIRCULAR    	0.05            	0         	0         	0         	1         	          
C6              	CIRCULAR    	0.05            	0         	0         	0         	1         	          
C8              	CIRCULAR    	0.05            	0         	0         	0         	1         	          
C12             	STREET      	STRADA+31       
C13             	STREET      	STRADA+31       
C14             	CIRCULAR    	0.02            	0         	0         	0         	1         	          
C15             	CIRCULAR    	0.05            	0         	0         	0         	1         	          
C16             	RECT_OPEN   	0.05            	0.2       	2         	0         	1         	          
C17             	RECT_OPEN   	0.2             	0.2       	2         	0         	1         	          
C18             	RECT_OPEN   	0.2             	0.2       	2         	0         	1         	          
C19             	STREET      	STRADA+31       
C20             	STREET      	STRADA+31       
C2              	CIRCULAR    	0.01            	0         	0         	0         	1         	          
C3              	CIRCULAR    	0.01            	0         	0         	0         	1         	          
C9              	CIRCULAR    	0.01            	0         	0         	0         	1         	          
C10             	CIRCULAR    	0.01            	0         	0         	0         	1         	          
C11             	STREET      	STRADA+31       
C21             	STREET      	STRADA+31       
C22             	STREET      	STRADA+31       
C23             	CIRCULAR    	1               	0         	0         	0         	1         	          

[STREETS]
;;Name          	Tcrown  	Hcurb   	Sx      	nRoad   	a       	W       	Sides   	Tback   	Sback   	nBack   
;;--------------	--------	--------	--------	--------	--------	--------	--------	--------	--------	--------
STRADA+31       	1.0     	0.2     	0.2     	0.016   	0.2     	0.2     	2       	0.2     	0.2     	0.016   

[TIMESERIES]
;;Name          	Date      	Time      	Value     
;;--------------	----------	----------	----------
TS_2Y_INT_CUHP  	          	0:05      	0.240     
TS_2Y_INT_CUHP  	          	0:10      	0.480     
TS_2Y_INT_CUHP  	          	0:15      	1.008     
TS_2Y_INT_CUHP  	          	0:20      	1.920     
TS_2Y_INT_CUHP  	          	0:25      	3.000     
TS_2Y_INT_CUHP  	          	0:30      	1.680     
TS_2Y_INT_CUHP  	          	0:35      	0.756     
TS_2Y_INT_CUHP  	          	0:40      	0.600     
TS_2Y_INT_CUHP  	          	0:45      	0.360     
TS_2Y_INT_CUHP  	          	0:50      	0.360     
TS_2Y_INT_CUHP  	          	0:55      	0.360     
TS_2Y_INT_CUHP  	          	1:00      	0.360     
TS_2Y_INT_CUHP  	          	1:05      	0.360     
TS_2Y_INT_CUHP  	          	1:10      	0.240     
TS_2Y_INT_CUHP  	          	1:15      	0.240     
TS_2Y_INT_CUHP  	          	1:20      	0.240     
TS_2Y_INT_CUHP  	          	1:25      	0.240     
TS_2Y_INT_CUHP  	          	1:30      	0.240     
TS_2Y_INT_CUHP  	          	1:35      	0.240     
TS_2Y_INT_CUHP  	          	1:40      	0.240     
TS_2Y_INT_CUHP  	          	1:45      	0.240     
TS_2Y_INT_CUHP  	          	1:50      	0.240     
TS_2Y_INT_CUHP  	          	1:55      	0.120     
TS_2Y_INT_CUHP  	          	2:00      	0.120     
;
;PERIODO FEBBRAIO 2024
TS_FEBBR2024    	2/23/2024 	0:00      	0.007874016
TS_FEBBR2024    	2/23/2024 	0:05      	0         
TS_FEBBR2024    	2/23/2024 	0:10      	0.007874016
TS_FEBBR2024    	2/23/2024 	0:15      	0.007874016
TS_FEBBR2024    	2/23/2024 	0:20      	0.007874016
TS_FEBBR2024    	2/23/2024 	0:25      	0         
TS_FEBBR2024    	2/23/2024 	0:30      	0         
TS_FEBBR2024    	2/23/2024 	0:35      	0.007874016
TS_FEBBR2024    	2/23/2024 	0:40      	0.007874016
TS_FEBBR2024    	2/23/2024 	0:45      	0         
TS_FEBBR2024    	2/23/2024 	0:50      	0.007874016
TS_FEBBR2024    	2/23/2024 	0:55      	0         
TS_FEBBR2024    	2/23/2024 	1:00      	0.007874016
TS_FEBBR2024    	2/23/2024 	1:05      	0         
TS_FEBBR2024    	2/23/2024 	1:10      	0         
TS_FEBBR2024    	2/23/2024 	1:15      	0.007874016
TS_FEBBR2024    	2/23/2024 	1:20      	0         
TS_FEBBR2024    	2/23/2024 	1:25      	0         
TS_FEBBR2024    	2/23/2024 	1:30      	0.007874016
TS_FEBBR2024    	2/23/2024 	1:35      	0         
TS_FEBBR2024    	2/23/2024 	1:40      	0         
TS_FEBBR2024    	2/23/2024 	1:45      	0         
TS_FEBBR2024    	2/23/2024 	1:50      	0.007874016
TS_FEBBR2024    	2/23/2024 	1:55      	0         
TS_FEBBR2024    	2/23/2024 	2:00      	0         
TS_FEBBR2024    	2/23/2024 	2:05      	0         
TS_FEBBR2024    	2/23/2024 	2:10      	0         
TS_FEBBR2024    	2/23/2024 	2:15      	0         
TS_FEBBR2024    	2/23/2024 	2:20      	0         
TS_FEBBR2024    	2/23/2024 	2:25      	0         
TS_FEBBR2024    	2/23/2024 	2:30      	0.007874016
TS_FEBBR2024    	2/23/2024 	2:35      	0         
TS_FEBBR2024    	2/23/2024 	2:40      	0.007874016
TS_FEBBR2024    	2/23/2024 	2:45      	0         
TS_FEBBR2024    	2/23/2024 	2:50      	0.007874016
TS_FEBBR2024    	2/23/2024 	2:55      	0         
TS_FEBBR2024    	2/23/2024 	3:00      	0.007874016
TS_FEBBR2024    	2/23/2024 	3:05      	0.007874016
TS_FEBBR2024    	2/23/2024 	3:10      	0         
TS_FEBBR2024    	2/23/2024 	3:15      	0         
TS_FEBBR2024    	2/23/2024 	3:20      	0         
TS_FEBBR2024    	2/23/2024 	3:25      	0.007874016
TS_FEBBR2024    	2/23/2024 	3:30      	0         
TS_FEBBR2024    	2/23/2024 	3:35      	0.007874016
TS_FEBBR2024    	2/23/2024 	3:40      	0         
TS_FEBBR2024    	2/23/2024 	3:45      	0.007874016
TS_FEBBR2024    	2/23/2024 	3:50      	0         
TS_FEBBR2024    	2/23/2024 	3:55      	0.007874016
TS_FEBBR2024    	2/23/2024 	4:00      	0.007874016
TS_FEBBR2024    	2/23/2024 	4:05      	0.015748031
TS_FEBBR2024    	2/23/2024 	4:10      	0.007874016
TS_FEBBR2024    	2/23/2024 	4:15      	0.007874016
TS_FEBBR2024    	2/23/2024 	4:20      	0.015748031
TS_FEBBR2024    	2/23/2024 	4:25      	0.007874016
TS_FEBBR2024    	2/23/2024 	4:30      	0.007874016
TS_FEBBR2024    	2/23/2024 	4:35      	0         
TS_FEBBR2024    	2/23/2024 	4:40      	0         
TS_FEBBR2024    	2/23/2024 	4:45      	0         
TS_FEBBR2024    	2/23/2024 	4:50      	0         
TS_FEBBR2024    	2/23/2024 	4:55      	0         
TS_FEBBR2024    	2/23/2024 	5:00      	0         
TS_FEBBR2024    	2/23/2024 	5:05      	0         
TS_FEBBR2024    	2/23/2024 	5:10      	0         
TS_FEBBR2024    	2/23/2024 	5:15      	0         
TS_FEBBR2024    	2/23/2024 	5:20      	0         
TS_FEBBR2024    	2/23/2024 	5:25      	0         
TS_FEBBR2024    	2/23/2024 	5:30      	0         
TS_FEBBR2024    	2/23/2024 	5:35      	0         
TS_FEBBR2024    	2/23/2024 	5:40      	0         
TS_FEBBR2024    	2/23/2024 	5:45      	0         
TS_FEBBR2024    	2/23/2024 	5:50      	0         
TS_FEBBR2024    	2/23/2024 	5:55      	0         
TS_FEBBR2024    	2/23/2024 	6:00      	0         
TS_FEBBR2024    	2/23/2024 	6:05      	0.007874016
TS_FEBBR2024    	2/23/2024 	6:10      	0.007874016
TS_FEBBR2024    	2/23/2024 	6:15      	0         
TS_FEBBR2024    	2/23/2024 	6:20      	0.007874016
TS_FEBBR2024    	2/23/2024 	6:25      	0.007874016
TS_FEBBR2024    	2/23/2024 	6:30      	0         
TS_FEBBR2024    	2/23/2024 	6:35      	0.007874016
TS_FEBBR2024    	2/23/2024 	6:40      	0         
TS_FEBBR2024    	2/23/2024 	6:45      	0.007874016
TS_FEBBR2024    	2/23/2024 	6:50      	0.007874016
TS_FEBBR2024    	2/23/2024 	6:55      	0.007874016
TS_FEBBR2024    	2/23/2024 	7:00      	0         
TS_FEBBR2024    	2/23/2024 	7:05      	0.007874016
TS_FEBBR2024    	2/23/2024 	7:10      	0.007874016
TS_FEBBR2024    	2/23/2024 	7:15      	0.007874016
TS_FEBBR2024    	2/23/2024 	7:20      	0.007874016
TS_FEBBR2024    	2/23/2024 	7:25      	0.007874016
TS_FEBBR2024    	2/23/2024 	7:30      	0.015748031
TS_FEBBR2024    	2/23/2024 	7:35      	0.015748031
TS_FEBBR2024    	2/23/2024 	7:40      	0.015748031
TS_FEBBR2024    	2/23/2024 	7:45      	0.031496063
TS_FEBBR2024    	2/23/2024 	7:50      	0.05511811
TS_FEBBR2024    	2/23/2024 	7:55      	0.015748031
TS_FEBBR2024    	2/23/2024 	8:00      	0.023622047
TS_FEBBR2024    	2/23/2024 	8:05      	0.023622047
TS_FEBBR2024    	2/23/2024 	8:10      	0.023622047
TS_FEBBR2024    	2/23/2024 	8:15      	0.047244094
TS_FEBBR2024    	2/23/2024 	8:20      	0.039370079
TS_FEBBR2024    	2/23/2024 	8:25      	0.015748031
TS_FEBBR2024    	2/23/2024 	8:30      	0.007874016
TS_FEBBR2024    	2/23/2024 	8:35      	0.015748031
TS_FEBBR2024    	2/23/2024 	8:40      	0         
TS_FEBBR2024    	2/23/2024 	8:45      	0.007874016
TS_FEBBR2024    	2/23/2024 	8:50      	0         
TS_FEBBR2024    	2/23/2024 	8:55      	0.007874016
TS_FEBBR2024    	2/23/2024 	9:00      	0.007874016
TS_FEBBR2024    	2/23/2024 	9:05      	0.007874016
TS_FEBBR2024    	2/23/2024 	9:10      	0.015748031
TS_FEBBR2024    	2/23/2024 	9:15      	0.086614173
TS_FEBBR2024    	2/23/2024 	9:20      	0.031496063
TS_FEBBR2024    	2/23/2024 	9:25      	0.007874016
TS_FEBBR2024    	2/23/2024 	9:30      	0.007874016
TS_FEBBR2024    	2/23/2024 	9:35      	0.007874016
TS_FEBBR2024    	2/23/2024 	9:40      	0         
TS_FEBBR2024    	2/23/2024 	9:45      	0.007874016
TS_FEBBR2024    	2/23/2024 	9:50      	0.007874016
TS_FEBBR2024    	2/23/2024 	9:55      	0         
TS_FEBBR2024    	2/23/2024 	10:00     	0.007874016
TS_FEBBR2024    	2/23/2024 	10:05     	0.007874016
TS_FEBBR2024    	2/23/2024 	10:10     	0         
TS_FEBBR2024    	2/23/2024 	10:15     	0.007874016
TS_FEBBR2024    	2/23/2024 	10:20     	0         
TS_FEBBR2024    	2/23/2024 	10:25     	0         
TS_FEBBR2024    	2/23/2024 	10:30     	0.007874016
TS_FEBBR2024    	2/23/2024 	10:35     	0         
TS_FEBBR2024    	2/23/2024 	10:40     	0.007874016
TS_FEBBR2024    	2/23/2024 	10:45     	0         
TS_FEBBR2024    	2/23/2024 	10:50     	0         
TS_FEBBR2024    	2/23/2024 	10:55     	0.007874016
TS_FEBBR2024    	2/23/2024 	11:00     	0         
TS_FEBBR2024    	2/23/2024 	11:05     	0.007874016
TS_FEBBR2024    	2/23/2024 	11:10     	0         
TS_FEBBR2024    	2/23/2024 	11:15     	0.007874016
TS_FEBBR2024    	2/23/2024 	11:20     	0.007874016
TS_FEBBR2024    	2/23/2024 	11:25     	0.007874016
TS_FEBBR2024    	2/23/2024 	11:30     	0.007874016
TS_FEBBR2024    	2/23/2024 	11:35     	0.007874016
TS_FEBBR2024    	2/23/2024 	11:40     	0.007874016
TS_FEBBR2024    	2/23/2024 	11:45     	0.007874016
TS_FEBBR2024    	2/23/2024 	11:50     	0.007874016
TS_FEBBR2024    	2/23/2024 	11:55     	0.007874016
TS_FEBBR2024    	2/23/2024 	12:00     	0.007874016
TS_FEBBR2024    	2/23/2024 	12:05     	0         
TS_FEBBR2024    	2/23/2024 	12:10     	0.007874016
TS_FEBBR2024    	2/23/2024 	12:15     	0         
TS_FEBBR2024    	2/23/2024 	12:20     	0         
TS_FEBBR2024    	2/23/2024 	12:25     	0         
TS_FEBBR2024    	2/23/2024 	12:30     	0         
TS_FEBBR2024    	2/23/2024 	12:35     	0         
TS_FEBBR2024    	2/23/2024 	12:40     	0         
TS_FEBBR2024    	2/23/2024 	12:45     	0         
TS_FEBBR2024    	2/23/2024 	12:50     	0         
TS_FEBBR2024    	2/23/2024 	12:55     	0         
TS_FEBBR2024    	2/23/2024 	13:00     	0         
TS_FEBBR2024    	2/23/2024 	13:05     	0         
TS_FEBBR2024    	2/23/2024 	13:10     	0         
TS_FEBBR2024    	2/23/2024 	13:15     	0         
TS_FEBBR2024    	2/23/2024 	13:20     	0         
TS_FEBBR2024    	2/23/2024 	13:25     	0         
TS_FEBBR2024    	2/23/2024 	13:30     	0         
TS_FEBBR2024    	2/23/2024 	13:35     	0         
TS_FEBBR2024    	2/23/2024 	13:40     	0         
TS_FEBBR2024    	2/23/2024 	13:45     	0         
TS_FEBBR2024    	2/23/2024 	13:50     	0         
TS_FEBBR2024    	2/23/2024 	13:55     	0         
TS_FEBBR2024    	2/23/2024 	14:00     	0         
TS_FEBBR2024    	2/23/2024 	14:05     	0         
TS_FEBBR2024    	2/23/2024 	14:10     	0         
TS_FEBBR2024    	2/23/2024 	14:15     	0         
TS_FEBBR2024    	2/23/2024 	14:20     	0         
TS_FEBBR2024    	2/23/2024 	14:25     	0         
TS_FEBBR2024    	2/23/2024 	14:30     	0         
TS_FEBBR2024    	2/23/2024 	14:35     	0         
TS_FEBBR2024    	2/23/2024 	14:40     	0         
TS_FEBBR2024    	2/23/2024 	14:45     	0         
TS_FEBBR2024    	2/23/2024 	14:50     	0         
TS_FEBBR2024    	2/23/2024 	14:55     	0         
TS_FEBBR2024    	2/23/2024 	15:00     	0         
TS_FEBBR2024    	2/23/2024 	15:05     	0         
TS_FEBBR2024    	2/23/2024 	15:10     	0         
TS_FEBBR2024    	2/23/2024 	15:15     	0         
TS_FEBBR2024    	2/23/2024 	15:20     	0         
TS_FEBBR2024    	2/23/2024 	15:25     	0         
TS_FEBBR2024    	2/23/2024 	15:30     	0.007874016
TS_FEBBR2024    	2/23/2024 	15:35     	0.007874016
TS_FEBBR2024    	2/23/2024 	15:40     	0         
TS_FEBBR2024    	2/23/2024 	15:45     	0         
TS_FEBBR2024    	2/23/2024 	15:50     	0         
TS_FEBBR2024    	2/23/2024 	15:55     	0         
TS_FEBBR2024    	2/23/2024 	16:00     	0         
TS_FEBBR2024    	2/23/2024 	16:05     	0         
TS_FEBBR2024    	2/23/2024 	16:10     	0         
TS_FEBBR2024    	2/23/2024 	16:15     	0         
TS_FEBBR2024    	2/23/2024 	16:20     	0         
TS_FEBBR2024    	2/23/2024 	16:25     	0         
TS_FEBBR2024    	2/23/2024 	16:30     	0         
TS_FEBBR2024    	2/23/2024 	16:35     	0         
TS_FEBBR2024    	2/23/2024 	16:40     	0.007874016
TS_FEBBR2024    	2/23/2024 	16:45     	0         
TS_FEBBR2024    	2/23/2024 	16:50     	0.007874016
TS_FEBBR2024    	2/23/2024 	16:55     	0.007874016
TS_FEBBR2024    	2/23/2024 	17:00     	0         
TS_FEBBR2024    	2/23/2024 	17:05     	0.007874016
TS_FEBBR2024    	2/23/2024 	17:10     	0         
TS_FEBBR2024    	2/23/2024 	17:15     	0         
TS_FEBBR2024    	2/23/2024 	17:20     	0         
TS_FEBBR2024    	2/23/2024 	17:25     	0         
TS_FEBBR2024    	2/23/2024 	17:30     	0         
TS_FEBBR2024    	2/23/2024 	17:35     	0.007874016
TS_FEBBR2024    	2/23/2024 	17:40     	0         
TS_FEBBR2024    	2/23/2024 	17:45     	0         
TS_FEBBR2024    	2/23/2024 	17:50     	0         
TS_FEBBR2024    	2/23/2024 	17:55     	0         
TS_FEBBR2024    	2/23/2024 	18:00     	0         
TS_FEBBR2024    	2/23/2024 	18:05     	0         
TS_FEBBR2024    	2/23/2024 	18:10     	0         
TS_FEBBR2024    	2/23/2024 	18:15     	0         
TS_FEBBR2024    	2/23/2024 	18:20     	0         
TS_FEBBR2024    	2/23/2024 	18:25     	0         
TS_FEBBR2024    	2/23/2024 	18:30     	0         
TS_FEBBR2024    	2/23/2024 	18:35     	0         
TS_FEBBR2024    	2/23/2024 	18:40     	0         
TS_FEBBR2024    	2/23/2024 	18:45     	0         
TS_FEBBR2024    	2/23/2024 	18:50     	0         
TS_FEBBR2024    	2/23/2024 	18:55     	0         
TS_FEBBR2024    	2/23/2024 	19:00     	0         
TS_FEBBR2024    	2/23/2024 	19:05     	0         
TS_FEBBR2024    	2/23/2024 	19:10     	0         
TS_FEBBR2024    	2/23/2024 	19:15     	0         
TS_FEBBR2024    	2/23/2024 	19:20     	0         
TS_FEBBR2024    	2/23/2024 	19:25     	0         
TS_FEBBR2024    	2/23/2024 	19:30     	0         
TS_FEBBR2024    	2/23/2024 	19:35     	0         
TS_FEBBR2024    	2/23/2024 	19:40     	0         
TS_FEBBR2024    	2/23/2024 	19:45     	0         
TS_FEBBR2024    	2/23/2024 	19:50     	0         
TS_FEBBR2024    	2/23/2024 	19:55     	0         
TS_FEBBR2024    	2/23/2024 	20:00     	0         
TS_FEBBR2024    	2/23/2024 	20:05     	0         
TS_FEBBR2024    	2/23/2024 	20:10     	0         
TS_FEBBR2024    	2/23/2024 	20:15     	0         
TS_FEBBR2024    	2/23/2024 	20:20     	0         
TS_FEBBR2024    	2/23/2024 	20:25     	0         
TS_FEBBR2024    	2/23/2024 	20:30     	0         
TS_FEBBR2024    	2/23/2024 	20:35     	0         
TS_FEBBR2024    	2/23/2024 	20:40     	0         
TS_FEBBR2024    	2/23/2024 	20:45     	0         
TS_FEBBR2024    	2/23/2024 	20:50     	0         
TS_FEBBR2024    	2/23/2024 	20:55     	0         
TS_FEBBR2024    	2/23/2024 	21:00     	0         
TS_FEBBR2024    	2/23/2024 	21:05     	0         
TS_FEBBR2024    	2/23/2024 	21:10     	0         
TS_FEBBR2024    	2/23/2024 	21:15     	0         
TS_FEBBR2024    	2/23/2024 	21:20     	0         
TS_FEBBR2024    	2/23/2024 	21:25     	0.05511811
TS_FEBBR2024    	2/23/2024 	21:30     	0.078740157
TS_FEBBR2024    	2/23/2024 	21:35     	0.047244094
TS_FEBBR2024    	2/23/2024 	21:40     	0         
TS_FEBBR2024    	2/23/2024 	21:45     	0         
TS_FEBBR2024    	2/23/2024 	21:50     	0         
TS_FEBBR2024    	2/23/2024 	21:55     	0         
TS_FEBBR2024    	2/23/2024 	22:00     	0         
TS_FEBBR2024    	2/23/2024 	22:05     	0         
TS_FEBBR2024    	2/23/2024 	22:10     	0         
TS_FEBBR2024    	2/23/2024 	22:15     	0         
TS_FEBBR2024    	2/23/2024 	22:20     	0         
TS_FEBBR2024    	2/23/2024 	22:25     	0.007874016
TS_FEBBR2024    	2/23/2024 	22:30     	0.023622047